LAMMPS (29 Sep 2021 - Update 3)
plugin load libdeepmd_lmp.so
Loading plugin: deepmd pair style v2.0 by Han Wang
Loading plugin: compute deeptensor/atom v2.0 by Han Wang
Loading plugin: fix dplr v2.0 by Han Wang
variable        NSTEPS          equal 20000
variable        THERMO_FREQ     equal 100
variable        DUMP_FREQ       equal 200
variable        dt              equal 0.0005
variable        TAU_T           equal 100*0.0005
variable        TAU_P           equal 1000*0.0005
variable        restart         equal 0

# ---------------------- INITIALIZAITION ------------------
units           metal
boundary        p p p
atom_style      atomic
restart         5000 lmp.rest1 lmp.rest2

# --------------------- ATOM DEFINITION ------------------
read_data       conf.lmp
Reading data file ...
  orthogonal box = (-0.25575082 -0.22148561 -0.24041539) to (15.263283 13.218325 14.348060)
  reading atoms ...
  288 atoms
mass            1 15.999000
mass            2 2.008000
# --------------------- FORCE FIELDS ---------------------
pair_style      deepmd frozen_model.pb
Summary of lammps deepmd module ...
  >>> Info of deepmd-kit:
  installed to:       /scratch/gpfs/yifanl/usr/licensed/anaconda3/2020.7/dp211
  source:             v2.1.1-1-gdff6aa33
  source branch:       HEAD
  source commit:      dff6aa33
  source commit at:   2022-05-21 20:41:28 -0400
  surpport model ver.:1.1
  build float prec:   double
  build with tf inc:  /scratch/gpfs/yifanl/usr/licensed/anaconda3/2020.7/dp211/include;/scratch/gpfs/yifanl/usr/licensed/anaconda3/2020.7/dp211/include
  build with tf lib:  /scratch/gpfs/yifanl/usr/licensed/anaconda3/2020.7/dp211/lib/libtensorflow_cc.so;/scratch/gpfs/yifanl/usr/licensed/anaconda3/2020.7/dp211/lib/libtensorflow_framework.so
  set tf intra_op_parallelism_threads: 0
  set tf inter_op_parallelism_threads: 0
  >>> Info of lammps module:
  use deepmd-kit at:  /scratch/gpfs/yifanl/usr/licensed/anaconda3/2020.7/dp211pair_coeff      * *
# --------------------- MD SETTINGS ----------------------
neighbor        1.0 bin
timestep        0.0005
thermo          100
thermo_style    custom step temp pe ke etotal press vol density lx ly lz

# --------------------- thermo SETTINGS ----------------------
velocity        all create 273 562280 dist gaussian
fix             mzero all momentum 1000 linear 1 1 1
fix             init all npt temp 273 273 0.05 iso 1.0 1.0 0.5
run             10000

CITE-CITE-CITE-CITE-CITE-CITE-CITE-CITE-CITE-CITE-CITE-CITE-CITE

Your simulation uses code contributions which should be cited:

- USER-DEEPMD package:

@article{Wang_ComputPhysCommun_2018_v228_p178,
  author = {Wang, Han and Zhang, Linfeng and Han, Jiequn and E, Weinan},
  doi = {10.1016/j.cpc.2018.03.016},
  url = {https://doi.org/10.1016/j.cpc.2018.03.016},
  year = 2018,
  month = {jul},
  publisher = {Elsevier {BV}},
  volume = 228,
  journal = {Comput. Phys. Commun.},
  title = {{DeePMD-kit: A deep learning package for many-body potential energy representation and molecular dynamics}},
  pages = {178--184}
}

CITE-CITE-CITE-CITE-CITE-CITE-CITE-CITE-CITE-CITE-CITE-CITE-CITE

  update every 1 steps, delay 10 steps, check yes
Step Temp PotEng KinEng TotEng Press Volume Density Lx Ly Lz
0          273   -1418.9317    10.127662    -1408.804    17883.448    3042.7604    1.0485959    15.519034    13.439811    14.588476
Averages over the last 51 of 101 rows, steps 5000 to 10000:
Temp PotEng KinEng TotEng Press Volume Density Lx Ly Lz
271.463 -1421.4 10.0706 -1411.33 207.62 3134.05 1.01826 15.6724 13.5726 14.7326
Loop time of 99.7602 on 1 procs for 10000 steps with 288 atoms

unfix           init
reset_timestep 	0

dump            1 all custom 200 water.lammpstrj id type x y z
fix             2 all npt temp 273 273 0.05  iso 1.0 1.0 0.5
run             20000
Step Temp PotEng KinEng TotEng Press Volume Density Lx Ly Lz
0     251.7259   -1421.4643    9.3384424   -1412.1259   -2870.3628    3172.8012     1.005618     15.73704    13.628609     14.79341
Averages over the last 101 of 201 rows, steps 10000 to 20000:
Temp PotEng KinEng TotEng Press Volume Density Lx Ly Lz
273.443 -1421.46 10.1441 -1411.32 -113.317 3123.75 1.02157 15.6552 13.5578 14.7165
Loop time of 199.468 on 1 procs for 20000 steps with 288 atoms

Unloading pair style deepmd
Unloading compute style deeptensor/atom
Unloading fix style dplr
